8
Coordinates from ORCA-job input
  O   1.29372831179886     -0.67300891241317     -0.25928288987895
  O   0.89233726593057      1.30155594020111      0.62000362025726
  C   -0.95792807276072     -0.05279902728387     -0.05720023829955
  C   0.48608041660093      0.28772038317463      0.14719008573251
  H   2.20111903035711     -0.41959583307280     -0.11451556118677
  H   -1.19434079817041     -0.96395520867236      0.49255399646368
  H   -1.13662382172789     -0.24468764863742     -1.11519956230526
  H   -1.58436233202846      0.76478030670388      0.28647054921709
